<?xml version="1.0" encoding="UTF-8"?>

<!-- generated on Thu Jan 14 18:06:23 2021 by Eclipse SUMO netconvert Version 1.4.0
<configuration xmlns:xsi="http://www.w3.org/2001/XMLSchema-instance" xsi:noNamespaceSchemaLocation="http://sumo.dlr.de/xsd/netconvertConfiguration.xsd">

    <input>
        <osm-files value="centro.osm"/>
    </input>

    <output>
        <output-file value="centro.net.xml"/>
    </output>

    <projection>
        <proj.utm value="true"/>
    </projection>

    <report>
        <aggregate-warnings value="5"/>
    </report>

</configuration>
-->

<net version="1.3" junctionCornerDetail="5" limitTurnSpeed="5.50" xmlns:xsi="http://www.w3.org/2001/XMLSchema-instance" xsi:noNamespaceSchemaLocation="http://sumo.dlr.de/xsd/net_file.xsd">

    <location netOffset="-776288.14,24721.42" convBoundary="0.00,0.00,807.03,1204.54" origBoundary="-78.517832,-0.223451,-78.510586,-0.212563" projParameter="+proj=utm +zone=17 +ellps=WGS84 +datum=WGS84 +units=m +no_defs"/>

    <type id="highway.bridleway" priority="1" numLanes="1" speed="2.78" allow="pedestrian" oneway="1" width="2.00"/>
    <type id="highway.bus_guideway" priority="1" numLanes="1" speed="27.78" allow="bus" oneway="1"/>
    <type id="highway.cycleway" priority="1" numLanes="1" speed="8.33" allow="bicycle" oneway="0" width="1.00"/>
    <type id="highway.footway" priority="1" numLanes="1" speed="2.78" allow="pedestrian" oneway="1" width="2.00"/>
    <type id="highway.ford" priority="1" numLanes="1" speed="2.78" allow="army" oneway="0"/>
    <type id="highway.living_street" priority="2" numLanes="1" speed="2.78" disallow="tram rail_urban rail rail_electric rail_fast ship" oneway="0"/>
    <type id="highway.motorway" priority="14" numLanes="2" speed="39.44" allow="private emergency authority army vip passenger hov taxi bus coach delivery truck trailer motorcycle evehicle custom1 custom2" oneway="1"/>
    <type id="highway.motorway_link" priority="9" numLanes="1" speed="22.22" allow="private emergency authority army vip passenger hov taxi bus coach delivery truck trailer motorcycle evehicle custom1 custom2" oneway="1"/>
    <type id="highway.path" priority="1" numLanes="1" speed="2.78" allow="pedestrian bicycle" oneway="1" width="2.00"/>
    <type id="highway.pedestrian" priority="1" numLanes="1" speed="2.78" allow="pedestrian" oneway="1" width="2.00"/>
    <type id="highway.primary" priority="12" numLanes="2" speed="27.78" disallow="tram rail_urban rail rail_electric rail_fast ship" oneway="0"/>
    <type id="highway.primary_link" priority="7" numLanes="1" speed="22.22" disallow="tram rail_urban rail rail_electric rail_fast ship" oneway="0"/>
    <type id="highway.raceway" priority="15" numLanes="2" speed="83.33" allow="vip" oneway="0"/>
    <type id="highway.residential" priority="3" numLanes="1" speed="13.89" disallow="tram rail_urban rail rail_electric rail_fast ship" oneway="0"/>
    <type id="highway.secondary" priority="11" numLanes="1" speed="27.78" disallow="tram rail_urban rail rail_electric rail_fast ship" oneway="0"/>
    <type id="highway.secondary_link" priority="6" numLanes="1" speed="22.22" disallow="tram rail_urban rail rail_electric rail_fast ship" oneway="0"/>
    <type id="highway.service" priority="1" numLanes="1" speed="5.56" allow="pedestrian delivery bicycle" oneway="0"/>
    <type id="highway.stairs" priority="1" numLanes="1" speed="1.39" allow="pedestrian" oneway="1" width="2.00"/>
    <type id="highway.step" priority="1" numLanes="1" speed="1.39" allow="pedestrian" oneway="1" width="2.00"/>
    <type id="highway.steps" priority="1" numLanes="1" speed="1.39" allow="pedestrian" oneway="1" width="2.00"/>
    <type id="highway.tertiary" priority="10" numLanes="1" speed="22.22" disallow="tram rail_urban rail rail_electric rail_fast ship" oneway="0"/>
    <type id="highway.tertiary_link" priority="5" numLanes="1" speed="22.22" disallow="tram rail_urban rail rail_electric rail_fast ship" oneway="0"/>
    <type id="highway.track" priority="1" numLanes="1" speed="5.56" disallow="tram rail_urban rail rail_electric rail_fast ship" oneway="0"/>
    <type id="highway.trunk" priority="13" numLanes="2" speed="27.78" disallow="pedestrian bicycle tram rail_urban rail rail_electric rail_fast ship" oneway="0"/>
    <type id="highway.trunk_link" priority="8" numLanes="1" speed="22.22" disallow="pedestrian bicycle tram rail_urban rail rail_electric rail_fast ship" oneway="0"/>
    <type id="highway.unclassified" priority="4" numLanes="1" speed="13.89" disallow="tram rail_urban rail rail_electric rail_fast ship" oneway="0"/>
    <type id="highway.unsurfaced" priority="1" numLanes="1" speed="8.33" disallow="tram rail_urban rail rail_electric rail_fast ship" oneway="0"/>
    <type id="railway.highspeed" priority="21" numLanes="1" speed="69.44" allow="rail_fast" oneway="1"/>
    <type id="railway.light_rail" priority="19" numLanes="1" speed="27.78" allow="rail_urban" oneway="1"/>
    <type id="railway.preserved" priority="16" numLanes="1" speed="27.78" allow="rail" oneway="1"/>
    <type id="railway.rail" priority="20" numLanes="1" speed="44.44" allow="rail" oneway="1"/>
    <type id="railway.subway" priority="18" numLanes="1" speed="27.78" allow="rail_urban" oneway="1"/>
    <type id="railway.tram" priority="17" numLanes="1" speed="13.89" allow="tram" oneway="1"/>

    <edge id=":1005358963_0" function="internal">
        <lane id=":1005358963_0_0" index="0" disallow="tram rail_urban rail rail_electric rail_fast ship" speed="13.89" length="5.19" shape="257.88,539.45 261.92,536.18"/>
    </edge>
    <edge id=":1005359340_0" function="internal">
        <lane id=":1005359340_0_0" index="0" disallow="tram rail_urban rail rail_electric rail_fast ship" speed="13.89" length="0.28" shape="475.10,554.93 475.29,555.13"/>
    </edge>
    <edge id=":1005735167_0" function="internal">
        <lane id=":1005735167_0_0" index="0" disallow="tram rail_urban rail rail_electric rail_fast ship" speed="13.89" length="5.46" shape="232.42,715.88 233.52,717.08 234.25,717.92 235.05,718.69 236.33,719.67"/>
    </edge>
    <edge id=":1239464461_0" function="internal">
        <lane id=":1239464461_0_0" index="0" disallow="tram rail_urban rail rail_electric rail_fast ship" speed="13.89" length="8.80" shape="292.55,845.57 285.31,850.56"/>
    </edge>
    <edge id=":1239464461_1" function="internal">
        <lane id=":1239464461_1_0" index="0" disallow="tram rail_urban rail rail_electric rail_fast ship" speed="3.65" length="2.34" shape="292.55,845.57 291.11,845.61 290.32,845.19"/>
    </edge>
    <edge id=":1239464461_6" function="internal">
        <lane id=":1239464461_6_0" index="0" disallow="tram rail_urban rail rail_electric rail_fast ship" speed="3.65" length="2.34" shape="290.32,845.19 290.18,844.31 290.69,842.96"/>
    </edge>
    <edge id=":1239464461_2" function="internal">
        <lane id=":1239464461_2_0" index="0" disallow="tram rail_urban rail rail_electric rail_fast ship" speed="4.92" length="8.55" shape="287.72,840.55 286.67,843.28 286.81,844.59 288.16,844.49 290.69,842.96"/>
    </edge>
    <edge id=":1239464461_3" function="internal">
        <lane id=":1239464461_3_0" index="0" disallow="tram rail_urban rail rail_electric rail_fast ship" speed="9.72" length="10.67" shape="287.72,840.55 286.97,843.56 287.14,846.04 287.00,848.27 285.31,850.56"/>
    </edge>
    <edge id=":1239464461_4" function="internal">
        <lane id=":1239464461_4_0" index="0" disallow="tram rail_urban rail rail_electric rail_fast ship" speed="13.89" length="9.06" shape="283.25,848.11 285.36,846.45 286.89,845.43 288.46,844.46 290.69,842.96"/>
    </edge>
    <edge id=":1239464461_5" function="internal">
        <lane id=":1239464461_5_0" index="0" disallow="tram rail_urban rail rail_electric rail_fast ship" speed="3.65" length="2.49" shape="283.25,848.11 284.68,847.95 285.50,848.30 285.54,848.45"/>
    </edge>
    <edge id=":1239464461_7" function="internal">
        <lane id=":1239464461_7_0" index="0" disallow="tram rail_urban rail rail_electric rail_fast ship" speed="3.65" length="2.18" shape="285.54,848.45 285.71,849.17 285.31,850.56"/>
    </edge>
    <edge id=":1634104596_0" function="internal">
        <lane id=":1634104596_0_0" index="0" allow="pedestrian delivery bicycle" speed="5.56" length="0.29" shape="126.24,991.58 126.06,991.35"/>
    </edge>
    <edge id=":2291815232_0" function="internal">
        <lane id=":2291815232_0_0" index="0" allow="pedestrian delivery bicycle" speed="5.56" length="0.30" shape="197.70,1071.87 197.88,1072.11"/>
    </edge>
    <edge id=":2291815234_0" function="internal">
        <lane id=":2291815234_0_0" index="0" allow="pedestrian delivery bicycle" speed="5.56" length="0.10" shape="132.70,985.94 132.70,985.94"/>
    </edge>
    <edge id=":268128235_0" function="internal">
        <lane id=":268128235_0_0" index="0" disallow="tram rail_urban rail rail_electric rail_fast ship" speed="3.65" length="4.67" shape="197.94,1205.52 196.58,1205.98 195.70,1205.81 195.31,1205.00 195.41,1203.57"/>
    </edge>
    <edge id=":268250411_0" function="internal">
        <lane id=":268250411_0_0" index="0" disallow="tram rail_urban rail rail_electric rail_fast ship" speed="27.78" length="9.32" shape="165.44,1051.43 159.67,1044.12"/>
        <lane id=":268250411_0_1" index="1" disallow="tram rail_urban rail rail_electric rail_fast ship" speed="27.78" length="9.32" shape="167.95,1049.45 162.18,1042.13"/>
    </edge>
    <edge id=":268250411_2" function="internal">
        <lane id=":268250411_2_0" index="0" disallow="tram rail_urban rail rail_electric rail_fast ship" speed="8.81" length="7.54" shape="159.32,1051.58 159.73,1048.65 159.93,1046.43 159.91,1044.92 159.67,1044.12"/>
    </edge>
    <edge id=":268250419_0" function="internal">
        <lane id=":268250419_0_0" index="0" disallow="tram rail_urban rail rail_electric rail_fast ship" speed="25.00" length="44.39" shape="183.73,1035.69 207.99,1072.86"/>
    </edge>
    <edge id=":268250419_1" function="internal">
        <lane id=":268250419_1_0" index="0" disallow="tram rail_urban rail rail_electric rail_fast ship" speed="27.78" length="44.35" shape="180.67,1037.80 207.99,1072.86"/>
        <lane id=":268250419_1_1" index="1" disallow="tram rail_urban rail rail_electric rail_fast ship" speed="27.78" length="44.35" shape="178.15,1039.78 205.35,1074.67"/>
    </edge>
    <edge id=":268250435_0" function="internal">
        <lane id=":268250435_0_0" index="0" disallow="tram rail_urban rail rail_electric rail_fast ship" speed="14.06" length="10.30" shape="124.01,968.35 126.07,970.45 127.93,971.37 130.08,971.86 133.04,972.71"/>
    </edge>
    <edge id=":268250435_1" function="internal">
        <lane id=":268250435_1_0" index="0" disallow="tram rail_urban rail rail_electric rail_fast ship" speed="27.78" length="10.33" shape="124.01,968.35 130.90,975.89"/>
        <lane id=":268250435_1_1" index="1" disallow="tram rail_urban rail rail_electric rail_fast ship" speed="27.78" length="10.33" shape="121.50,970.33 128.53,978.04"/>
    </edge>
    <edge id=":268250449_0" function="internal">
        <lane id=":268250449_0_0" index="0" disallow="tram rail_urban rail rail_electric rail_fast ship" speed="16.18" length="10.34" shape="225.31,903.08 223.85,905.73 222.62,907.50 221.07,908.97 218.61,910.72"/>
    </edge>
    <edge id=":268250449_1" function="internal">
        <lane id=":268250449_1_0" index="0" disallow="tram rail_urban rail rail_electric rail_fast ship" speed="5.71" length="8.65" shape="225.31,903.08 223.61,905.67 221.98,907.03 220.42,907.15 218.93,906.02"/>
    </edge>
    <edge id=":268250449_2" function="internal">
        <lane id=":268250449_2_0" index="0" disallow="tram rail_urban rail rail_electric rail_fast ship" speed="6.08" length="1.16" shape="221.39,903.97 221.91,905.01"/>
    </edge>
    <edge id=":268250449_3" function="internal">
        <lane id=":268250449_3_0" index="0" disallow="tram rail_urban rail rail_electric rail_fast ship" speed="3.65" length="1.44" shape="221.39,903.97 221.54,905.41"/>
    </edge>
    <edge id=":268250449_4" function="internal">
        <lane id=":268250449_4_0" index="0" disallow="tram rail_urban rail rail_electric rail_fast ship" speed="6.08" length="7.21" shape="221.91,905.01 222.19,905.57 222.00,907.22 220.80,908.94 218.61,910.72"/>
    </edge>
    <edge id=":268250449_5" function="internal">
        <lane id=":268250449_5_0" index="0" disallow="tram rail_urban rail rail_electric rail_fast ship" speed="3.65" length="3.23" shape="221.54,905.41 221.19,906.23 220.31,906.43 218.93,906.02"/>
    </edge>
    <edge id=":268250450_0" function="internal">
        <lane id=":268250450_0_0" index="0" disallow="tram rail_urban rail rail_electric rail_fast ship" speed="6.52" length="8.58" shape="339.91,818.75 338.24,817.12 336.43,816.37 334.48,816.51 332.38,817.52"/>
    </edge>
    <edge id=":268250450_1" function="internal">
        <lane id=":268250450_1_0" index="0" disallow="tram rail_urban rail rail_electric rail_fast ship" speed="10.42" length="11.86" shape="339.91,818.75 337.59,815.45 336.04,812.58 335.29,810.13 335.31,808.12"/>
    </edge>
    <edge id=":268250450_2" function="internal">
        <lane id=":268250450_2_0" index="0" disallow="tram rail_urban rail rail_electric rail_fast ship" speed="11.28" length="10.97" shape="338.43,808.85 337.59,811.87 336.54,813.97 334.92,815.68 332.38,817.52"/>
    </edge>
    <edge id=":268250450_3" function="internal">
        <lane id=":268250450_3_0" index="0" disallow="tram rail_urban rail rail_electric rail_fast ship" speed="3.65" length="2.34" shape="338.43,808.85 337.38,809.84 336.51,810.04"/>
    </edge>
    <edge id=":268250450_6" function="internal">
        <lane id=":268250450_6_0" index="0" disallow="tram rail_urban rail rail_electric rail_fast ship" speed="3.65" length="2.34" shape="336.51,810.04 335.82,809.47 335.31,808.12"/>
    </edge>
    <edge id=":268250450_4" function="internal">
        <lane id=":268250450_4_0" index="0" disallow="tram rail_urban rail rail_electric rail_fast ship" speed="10.01" length="8.56" shape="330.60,814.85 332.65,813.40 333.89,812.13 334.66,810.54 335.31,808.12"/>
    </edge>
    <edge id=":268250450_5" function="internal">
        <lane id=":268250450_5_0" index="0" disallow="tram rail_urban rail rail_electric rail_fast ship" speed="3.65" length="2.34" shape="330.60,814.85 332.04,814.85 332.82,815.30"/>
    </edge>
    <edge id=":268250450_7" function="internal">
        <lane id=":268250450_7_0" index="0" disallow="tram rail_urban rail rail_electric rail_fast ship" speed="3.65" length="2.34" shape="332.82,815.30 332.93,816.18 332.38,817.52"/>
    </edge>
    <edge id=":268250451_0" function="internal">
        <lane id=":268250451_0_0" index="0" disallow="tram rail_urban rail rail_electric rail_fast ship" speed="6.85" length="6.49" shape="368.15,731.83 366.71,732.24 365.48,733.08 364.46,734.35 363.67,736.05"/>
    </edge>
    <edge id=":268250451_1" function="internal">
        <lane id=":268250451_1_0" index="0" disallow="tram rail_urban rail rail_electric rail_fast ship" speed="3.65" length="4.67" shape="368.15,731.83 366.85,731.20 366.35,730.46 366.64,729.62 367.72,728.66"/>
    </edge>
    <edge id=":268250451_2" function="internal">
        <lane id=":268250451_2_0" index="0" disallow="tram rail_urban rail rail_electric rail_fast ship" speed="6.68" length="7.70" shape="361.60,725.09 362.60,726.86 363.96,728.05 365.66,728.65 367.72,728.66"/>
    </edge>
    <edge id=":268250451_3" function="internal">
        <lane id=":268250451_3_0" index="0" disallow="tram rail_urban rail rail_electric rail_fast ship" speed="11.90" length="11.55" shape="361.60,725.09 362.94,728.10 363.96,730.55 364.32,733.01 363.67,736.05"/>
    </edge>
    <edge id=":268250451_4" function="internal">
        <lane id=":268250451_4_0" index="0" disallow="tram rail_urban rail rail_electric rail_fast ship" speed="8.36" length="3.81" shape="360.66,734.97 361.86,732.45 362.51,731.67"/>
    </edge>
    <edge id=":268250451_5" function="internal">
        <lane id=":268250451_5_0" index="0" disallow="tram rail_urban rail rail_electric rail_fast ship" speed="3.65" length="2.10" shape="360.66,734.97 361.81,734.11 362.46,734.04"/>
    </edge>
    <edge id=":268250451_6" function="internal">
        <lane id=":268250451_6_0" index="0" disallow="tram rail_urban rail rail_electric rail_fast ship" speed="8.36" length="6.19" shape="362.51,731.67 363.44,730.55 365.39,729.29 367.72,728.66"/>
    </edge>
    <edge id=":268250451_7" function="internal">
        <lane id=":268250451_7_0" index="0" disallow="tram rail_urban rail rail_electric rail_fast ship" speed="3.65" length="2.58" shape="362.46,734.04 362.70,734.01 363.32,734.65 363.67,736.05"/>
    </edge>
    <edge id=":268250460_0" function="internal">
        <lane id=":268250460_0_0" index="0" disallow="tram rail_urban rail rail_electric rail_fast ship" speed="13.89" length="9.52" shape="323.09,1030.71 320.88,1032.44 319.57,1033.87 318.33,1035.38 316.30,1037.34"/>
    </edge>
    <edge id=":268250460_1" function="internal">
        <lane id=":268250460_1_0" index="0" disallow="tram rail_urban rail rail_electric rail_fast ship" speed="3.65" length="2.22" shape="323.09,1030.71 321.65,1030.72 320.97,1030.34"/>
    </edge>
    <edge id=":268250460_6" function="internal">
        <lane id=":268250460_6_0" index="0" disallow="tram rail_urban rail rail_electric rail_fast ship" speed="3.65" length="2.45" shape="320.97,1030.34 320.86,1030.28 320.75,1029.40 321.29,1028.06"/>
    </edge>
    <edge id=":268250460_2" function="internal">
        <lane id=":268250460_2_0" index="0" disallow="tram rail_urban rail rail_electric rail_fast ship" speed="13.89" length="9.77" shape="312.28,1031.65 315.09,1030.89 317.03,1030.36 318.84,1029.58 321.29,1028.06"/>
    </edge>
    <edge id=":268250460_3" function="internal">
        <lane id=":268250460_3_0" index="0" disallow="tram rail_urban rail rail_electric rail_fast ship" speed="6.68" length="18.01" shape="312.28,1031.65 318.66,1030.20 321.45,1030.66 320.66,1033.04 316.30,1037.34"/>
    </edge>
    <edge id=":268250460_4" function="internal">
        <lane id=":268250460_4_0" index="0" disallow="tram rail_urban rail rail_electric rail_fast ship" speed="13.89" length="9.87" shape="314.22,1034.90 316.33,1032.88 317.63,1031.32 318.99,1029.85 321.29,1028.06"/>
    </edge>
    <edge id=":268250460_5" function="internal">
        <lane id=":268250460_5_0" index="0" disallow="tram rail_urban rail rail_electric rail_fast ship" speed="3.65" length="2.23" shape="314.22,1034.90 315.65,1034.73 316.37,1035.04"/>
    </edge>
    <edge id=":268250460_7" function="internal">
        <lane id=":268250460_7_0" index="0" disallow="tram rail_urban rail rail_electric rail_fast ship" speed="3.65" length="2.45" shape="316.37,1035.04 316.47,1035.08 316.69,1035.95 316.30,1037.34"/>
    </edge>
    <edge id=":268250466_0" function="internal">
        <lane id=":268250466_0_0" index="0" disallow="tram rail_urban rail rail_electric rail_fast ship" speed="7.80" length="14.66" shape="526.69,900.09 528.91,903.52 529.38,906.73 528.11,909.71 525.10,912.47"/>
    </edge>
    <edge id=":268250466_1" function="internal">
        <lane id=":268250466_1_0" index="0" disallow="tram rail_urban rail rail_electric rail_fast ship" speed="3.65" length="2.56" shape="526.69,900.09 526.88,901.52 526.54,902.34 526.32,902.40"/>
    </edge>
    <edge id=":268250466_4" function="internal">
        <lane id=":268250466_4_0" index="0" disallow="tram rail_urban rail rail_electric rail_fast ship" speed="3.65" length="2.11" shape="526.32,902.40 525.67,902.57 524.28,902.19"/>
    </edge>
    <edge id=":268250466_2" function="internal">
        <lane id=":268250466_2_0" index="0" disallow="tram rail_urban rail rail_electric rail_fast ship" speed="6.27" length="9.04" shape="523.29,909.83 525.15,908.13 525.94,906.28 525.64,904.31 524.28,902.19"/>
    </edge>
    <edge id=":268250466_3" function="internal">
        <lane id=":268250466_3_0" index="0" disallow="tram rail_urban rail rail_electric rail_fast ship" speed="3.65" length="2.08" shape="523.29,909.83 524.74,909.81 525.29,910.12"/>
    </edge>
    <edge id=":268250466_5" function="internal">
        <lane id=":268250466_5_0" index="0" disallow="tram rail_urban rail rail_electric rail_fast ship" speed="3.65" length="2.59" shape="525.29,910.12 525.52,910.25 525.64,911.14 525.10,912.47"/>
    </edge>
    <edge id=":268250488_0" function="internal">
        <lane id=":268250488_0_0" index="0" disallow="tram rail_urban rail rail_electric rail_fast ship" speed="6.64" length="10.66" shape="137.01,806.49 134.97,808.73 134.26,810.97 134.88,813.21 136.83,815.44"/>
    </edge>
    <edge id=":268250488_1" function="internal">
        <lane id=":268250488_1_0" index="0" disallow="tram rail_urban rail rail_electric rail_fast ship" speed="13.89" length="15.31" shape="137.01,806.49 134.20,809.05 131.46,811.79 128.65,814.42 125.64,816.71"/>
    </edge>
    <edge id=":268250488_2" function="internal">
        <lane id=":268250488_2_0" index="0" disallow="tram rail_urban rail rail_electric rail_fast ship" speed="8.28" length="9.89" shape="137.01,806.49 133.74,808.57 130.58,809.28 127.86,808.70"/>
    </edge>
    <edge id=":268250488_9" function="internal">
        <lane id=":268250488_9_0" index="0" disallow="tram rail_urban rail rail_electric rail_fast ship" speed="8.28" length="3.91" shape="127.86,808.70 127.53,808.63 124.59,806.61"/>
    </edge>
    <edge id=":268250488_3" function="internal">
        <lane id=":268250488_3_0" index="0" disallow="tram rail_urban rail rail_electric rail_fast ship" speed="8.34" length="15.03" shape="126.77,804.27 136.83,815.44"/>
    </edge>
    <edge id=":268250488_4" function="internal">
        <lane id=":268250488_4_0" index="0" disallow="tram rail_urban rail rail_electric rail_fast ship" speed="7.63" length="15.24" shape="126.77,804.27 129.49,807.65 130.21,810.85 128.92,813.87 125.64,816.71"/>
    </edge>
    <edge id=":268250488_5" function="internal">
        <lane id=":268250488_5_0" index="0" disallow="tram rail_urban rail rail_electric rail_fast ship" speed="2.78" length="4.67" shape="126.77,804.27 127.10,805.68 126.85,806.53 126.01,806.85 124.59,806.61"/>
    </edge>
    <edge id=":268250488_6" function="internal">
        <lane id=":268250488_6_0" index="0" disallow="tram rail_urban rail rail_electric rail_fast ship" speed="6.03" length="9.07" shape="123.91,814.02 125.87,812.33 126.63,810.53 126.20,808.62 124.59,806.61"/>
    </edge>
    <edge id=":268250488_7" function="internal">
        <lane id=":268250488_7_0" index="0" disallow="tram rail_urban rail rail_electric rail_fast ship" speed="8.97" length="4.81" shape="123.91,814.02 127.13,812.56 128.40,812.46"/>
    </edge>
    <edge id=":268250488_8" function="internal">
        <lane id=":268250488_8_0" index="0" disallow="tram rail_urban rail rail_electric rail_fast ship" speed="3.65" length="2.19" shape="123.91,814.02 125.36,814.04 126.00,814.43"/>
    </edge>
    <edge id=":268250488_10" function="internal">
        <lane id=":268250488_10_0" index="0" disallow="tram rail_urban rail rail_electric rail_fast ship" speed="8.97" length="9.22" shape="128.40,812.46 130.35,812.31 133.59,813.27 136.83,815.44"/>
    </edge>
    <edge id=":268250488_11" function="internal">
        <lane id=":268250488_11_0" index="0" disallow="tram rail_urban rail rail_electric rail_fast ship" speed="3.65" length="2.48" shape="126.00,814.43 126.12,814.50 126.22,815.39 125.64,816.71"/>
    </edge>
    <edge id=":268250492_0" function="internal">
        <lane id=":268250492_0_0" index="0" disallow="tram rail_urban rail rail_electric rail_fast ship" speed="2.78" length="4.67" shape="38.57,717.54 38.41,716.10 38.76,715.28 39.63,715.07 41.02,715.47"/>
    </edge>
    <edge id=":268253358_0" function="internal">
        <lane id=":268253358_0_0" index="0" disallow="tram rail_urban rail rail_electric rail_fast ship" speed="6.67" length="9.06" shape="521.95,752.68 520.12,751.07 518.18,750.40 516.12,750.66 513.94,751.85"/>
    </edge>
    <edge id=":268253358_1" function="internal">
        <lane id=":268253358_1_0" index="0" disallow="tram rail_urban rail rail_electric rail_fast ship" speed="13.89" length="11.02" shape="521.95,752.68 514.52,744.55"/>
    </edge>
    <edge id=":268253358_2" function="internal">
        <lane id=":268253358_2_0" index="0" disallow="tram rail_urban rail rail_electric rail_fast ship" speed="13.89" length="11.03" shape="522.80,745.30 513.94,751.85"/>
    </edge>
    <edge id=":268253358_3" function="internal">
        <lane id=":268253358_3_0" index="0" disallow="tram rail_urban rail rail_electric rail_fast ship" speed="6.91" length="4.45" shape="522.80,745.30 520.64,746.46 518.66,746.71"/>
    </edge>
    <edge id=":268253358_4" function="internal">
        <lane id=":268253358_4_0" index="0" disallow="tram rail_urban rail rail_electric rail_fast ship" speed="6.91" length="4.77" shape="518.66,746.71 518.54,746.73 516.49,746.09 514.52,744.55"/>
    </edge>
    <edge id=":268253367_0" function="internal">
        <lane id=":268253367_0_0" index="0" disallow="tram rail_urban rail rail_electric rail_fast ship" speed="3.90" length="2.70" shape="594.24,690.59 594.64,691.22 594.72,691.82 594.50,692.38 593.97,692.91"/>
    </edge>
    <edge id=":268253788_0" function="internal">
        <lane id=":268253788_0_0" index="0" disallow="tram rail_urban rail rail_electric rail_fast ship" speed="7.15" length="3.53" shape="509.08,884.73 507.90,882.56 507.96,881.49"/>
    </edge>
    <edge id=":268253788_1" function="internal">
        <lane id=":268253788_1_0" index="0" disallow="tram rail_urban rail rail_electric rail_fast ship" speed="3.65" length="2.19" shape="509.08,884.73 508.89,883.30 509.18,882.60"/>
    </edge>
    <edge id=":268253788_4" function="internal">
        <lane id=":268253788_4_0" index="0" disallow="tram rail_urban rail rail_electric rail_fast ship" speed="7.15" length="7.90" shape="507.96,881.49 508.02,880.23 509.44,877.75 512.15,875.11"/>
    </edge>
    <edge id=":268253788_5" function="internal">
        <lane id=":268253788_5_0" index="0" disallow="tram rail_urban rail rail_electric rail_fast ship" speed="3.65" length="2.48" shape="509.18,882.60 509.23,882.47 510.10,882.25 511.49,882.63"/>
    </edge>
    <edge id=":268253788_2" function="internal">
        <lane id=":268253788_2_0" index="0" disallow="tram rail_urban rail rail_electric rail_fast ship" speed="7.00" length="10.13" shape="503.12,875.63 505.02,877.06 507.16,877.45 509.53,876.80 512.15,875.11"/>
    </edge>
    <edge id=":268253788_3" function="internal">
        <lane id=":268253788_3_0" index="0" disallow="tram rail_urban rail rail_electric rail_fast ship" speed="13.89" length="10.94" shape="503.12,875.63 505.39,877.75 507.34,879.10 509.27,880.46 511.49,882.63"/>
    </edge>
    <edge id=":268253790_0" function="internal">
        <lane id=":268253790_0_0" index="0" disallow="tram rail_urban rail rail_electric rail_fast ship" speed="6.30" length="9.04" shape="444.83,803.13 443.05,804.90 442.33,806.78 442.67,808.76 444.08,810.84"/>
    </edge>
    <edge id=":268253790_1" function="internal">
        <lane id=":268253790_1_0" index="0" disallow="tram rail_urban rail rail_electric rail_fast ship" speed="13.89" length="11.48" shape="444.83,803.13 435.77,810.18"/>
    </edge>
    <edge id=":268253790_2" function="internal">
        <lane id=":268253790_2_0" index="0" disallow="tram rail_urban rail rail_electric rail_fast ship" speed="6.94" length="9.54" shape="444.83,803.13 442.56,804.38 440.38,804.67 438.30,804.01 436.30,802.40"/>
    </edge>
    <edge id=":268255162_0" function="internal">
        <lane id=":268255162_0_0" index="0" disallow="tram rail_urban rail rail_electric rail_fast ship" speed="13.89" length="13.53" shape="380.65,855.17 378.08,857.55 375.97,860.01 374.03,862.62 371.95,865.47"/>
    </edge>
    <edge id=":268255162_1" function="internal">
        <lane id=":268255162_1_0" index="0" disallow="tram rail_urban rail rail_electric rail_fast ship" speed="7.57" length="9.65" shape="380.65,855.17 377.06,857.63 373.98,858.71 371.96,858.48"/>
    </edge>
    <edge id=":268255162_4" function="internal">
        <lane id=":268255162_4_0" index="0" disallow="tram rail_urban rail rail_electric rail_fast ship" speed="7.57" length="3.21" shape="371.96,858.48 371.41,858.42 369.34,856.76"/>
    </edge>
    <edge id=":268255162_2" function="internal">
        <lane id=":268255162_2_0" index="0" disallow="tram rail_urban rail rail_electric rail_fast ship" speed="6.58" length="7.37" shape="369.39,863.55 370.35,861.84 370.66,860.14 370.32,858.45 369.34,856.76"/>
    </edge>
    <edge id=":268255162_3" function="internal">
        <lane id=":268255162_3_0" index="0" disallow="tram rail_urban rail rail_electric rail_fast ship" speed="3.65" length="2.34" shape="369.39,863.55 370.75,863.07 371.63,863.23"/>
    </edge>
    <edge id=":268255162_5" function="internal">
        <lane id=":268255162_5_0" index="0" disallow="tram rail_urban rail rail_electric rail_fast ship" speed="3.65" length="2.34" shape="371.63,863.23 372.03,864.03 371.95,865.47"/>
    </edge>
    <edge id=":268264887_0" function="internal">
        <lane id=":268264887_0_0" index="0" disallow="tram rail_urban rail rail_electric rail_fast ship" speed="3.65" length="4.67" shape="292.62,1019.54 291.40,1020.31 290.50,1020.34 289.94,1019.65 289.70,1018.22"/>
    </edge>
    <edge id=":268264888_0" function="internal">
        <lane id=":268264888_0_0" index="0" disallow="tram rail_urban rail rail_electric rail_fast ship" speed="6.34" length="4.44" shape="372.21,733.66 371.24,732.76 370.27,732.15 369.31,731.83 368.35,731.81"/>
    </edge>
    <edge id=":268264888_1" function="internal">