<?xml version="1.0" encoding="UTF-8"?>

<!-- generated on Thu Jan 14 19:51:09 2021 by Eclipse SUMO duarouter Version 1.4.0
<configuration xmlns:xsi="http://www.w3.org/2001/XMLSchema-instance" xsi:noNamespaceSchemaLocation="http://sumo.dlr.de/xsd/duarouterConfiguration.xsd">

    <input>
        <net-file value="centro.net.xml"/>
        <route-files value="trips.trips.xml"/>
    </input>

    <output>
        <output-file value="centro.rou.xml"/>
        <alternatives-output value="centro.rou.alt.xml"/>
    </output>

    <time>
        <begin value="0"/>
        <end value="145.0"/>
    </time>

    <report>
        <no-warnings value="true"/>
        <ignore-errors value="true"/>
        <no-step-log value="true"/>
    </report>

</configuration>
-->

<routes xmlns:xsi="http://www.w3.org/2001/XMLSchema-instance" xsi:noNamespaceSchemaLocation="http://sumo.dlr.de/xsd/routes_file.xsd">
    <vehicle id="0" depart="0.00">
        <route edges="351942413#0 351942413#1 579621131 31910404#0 31910404#1 31910404#2 -420910321 420910342#0 420910342#1 420910342#2 420910334 420910331 24679585"/>
    </vehicle>
    <vehicle id="1" depart="1.00">
        <route edges="353552123#2 353552123#3 352907817#0 352907817#1 351942413#0 351942413#1 579621131 31910395#0 31910395#1 31910394#0 31910394#1 61897521"/>
    </vehicle>
    <vehicle id="3" depart="3.00">
        <route edges="31297392 420910321 420910333 24918887#0 24918887#1 24918887#2 353552123#1 353552123#2 353552123#3 36739013 431750569#0"/>
    </vehicle>
    <vehicle id="4" depart="4.00">
        <route edges="354423304#1 354423304#2 351942429#0 351942429#1 425625696 352907817#1 351942413#0 351942413#1 579621131 31910404#0 31910404#1 31910404#2 -420910321 420910342#0 420910342#1 24734053#0 24734053#1 24734053#2 420910337"/>
    </vehicle>
    <vehicle id="5" depart="5.00">
        <route edges="128476278 431924426#0 421483699#2 351942429#1 425625696 352907817#1 351942413#0 351942413#1 351942413#2 351942414#0 351942414#1 425431676 425431688 31910453 -420910312 -420910337 -370247381"/>
    </vehicle>
    <vehicle id="6" depart="6.00">
        <route edges="60355155#0 60355155#1 422450530#1 420910335 -420910342#2 -420910342#1 -420910342#0 420910321 420910333 24918887#0 24918887#1 351942414#1 425431676 425431688 31910441"/>
    </vehicle>
    <vehicle id="7" depart="7.00">
        <route edges="31281345 579621131 31910404#0 31910404#1 31910404#2 -420910321 420910342#0 420910342#1 420910342#2 420910334 420910331 431718512"/>
    </vehicle>
    <vehicle id="8" depart="8.00">
        <route edges="354423304#2 351942429#0 351942429#1 425625696 352907817#1 351942413#0 351942413#1 579621131"/>
    </vehicle>
    <vehicle id="11" depart="11.00">
        <route edges="354423304#0 31910357#1 31910357#2 351942413#1 351942413#2 351942414#0 351942414#1 425431676 425431688 31910426 31910413"/>
    </vehicle>
    <vehicle id="12" depart="12.00">
        <route edges="541724222#1 409656667 431924426#0 421483699#2 351942429#1 425625696 352907817#1 351942413#0 351942413#1 579621131 31910404#0 31910404#1 31910404#2 -420910321 420910342#0 -420910342#0"/>
    </vehicle>
    <vehicle id="13" depart="13.00">
        <route edges="431750569#0 431750569#1 541724222#0 541724222#1 409656667 431924426#0 421483699#2 351942429#1 425625696 352907817#1 351942413#0 351942413#1 579621131 31910404#0 31910404#1 31910404#2 420910333 24918887#0 24918887#1"/>
    </vehicle>
    <vehicle id="14" depart="14.00">
        <route edges="425431676 425431688 31910426 31297392 420910342#0 420910342#1 420910342#2 420910334 24679589 431716082 431716081 24680727 31910391 24679590 354423304#0 31910357#1 31910357#2"/>
    </vehicle>
    <vehicle id="15" depart="15.00">
        <route edges="354423304#1 354423304#2 351942429#0 351942429#1 425625696 352907817#1 351942413#0 351942413#1 351942413#2 351942414#0 24918887#2 353552123#1 353552123#2 353552123#3"/>
    </vehicle>
    <vehicle id="17" depart="17.00">
        <route edges="36739013 431750569#0 431750569#1 541724221 431920752"/>
    </vehicle>
    <vehicle id="19" depart="19.00">
        <route edges="-61897521 420910317 24680727 31910391 24679590 354423304#0 354423304#1 354423304#2 351942429#0 351942429#1 351942429#2 431750569#0 431750569#1 541724221 431920752"/>
    </vehicle>
    <vehicle id="20" depart="20.00">
        <route edges="24918887#0 24918887#1 351942414#1 425431676 425431688 31910441"/>
    </vehicle>
    <vehicle id="23" depart="23.00">
        <route edges="353556189 425431687 24918887#1 24918887#2 353552123#1 353552123#2 353552123#3 36739013 128476278 431924426#0 431924426#1"/>
    </vehicle>
    <vehicle id="24" depart="24.00">
        <route edges="31281345 579621131"/>
    </vehicle>
    <vehicle id="25" depart="25.00">
        <route edges="24918887#1 24918887#2 353552123#1 353552123#2 353552123#3 36739013"/>
    </vehicle>
    <vehicle id="26" depart="26.00">
        <route edges="31910394#0 24680728#2 31910391 765812809 765812811 765812810 31910404#2 420910333 24918887#0 24918887#1 351942414#1 425431676 425431688"/>
    </vehicle>
    <vehicle id="28" depart="28.00">
        <route edges="431735740 351942429#0 351942429#1 425625696 352907817#1 351942413#0 351942413#1 579621131 31910395#0 31910395#1 31910394#0 24680728#2"/>
    </vehicle>
    <vehicle id="29" depart="29.00">
        <route edges="354423304#0 31910357#1 31910357#2 351942413#1 351942413#2 351942414#0 351942414#1"/>
    </vehicle>
    <vehicle id="30" depart="30.00">
        <route edges="-420910342#0 420910342#0 420910342#1 420910342#2 420910334 24679589 431716082 431716081 24680727 31910391 24679590 31910394#0"/>
    </vehicle>
    <vehicle id="31" depart="31.00">
        <route edges="-61897521 420910317 24680727 31910391 765812809 765812811 765812810 31910404#2 420910333 24918887#0 24918887#1 24918887#2 353552123#1 353552123#2 353552123#3 36739013"/>
    </vehicle>
    <vehicle id="32" depart="32.00">
        <route edges="353556189 425431687 24918887#1 24918887#2 353552123#1 353552123#2 353552123#3 36739013 431750569#0 431750569#1 541724222#0 541724222#1 409656667"/>
    </vehicle>
    <vehicle id="34" depart="34.00">
        <route edges="431735740 351942429#0 351942429#1 425625696 352907817#1 351942413#0 351942413#1 579621131 31910404#0 31910404#1 31910404#2 -420910321 420910342#0 420910342#1 24734053#0 24734053#1 24734053#2 420910337"/>
    </vehicle>
    <vehicle id="35" depart="35.00">
        <route edges="409656667 431924426#0 421483699#2 351942429#1 425625696 352907817#1 351942413#0 351942413#1 579621131 31910395#0 31910395#1 354423304#0 354423304#1 354423304#2 351942429#0"/>
    </vehicle>
    <vehicle id="37" depart="37.00">
        <route edges="431718577#0 60355155#0 60355155#1 422450530#1 431716082 431716081 24680727 31910391 24679590 354423304#0 354423304#1"/>
    </vehicle>
    <vehicle id="38" depart="38.00">
        <route edges="24679586 -431716081 -431716082 -24679589 420910331 431718512 422450528 422450526"/>
    </vehicle>
    <vehicle id="39" depart="39.00">
        <route edges="24679580 422450527 422450530#0 422450530#1 420910335 -420910342#2 -420910342#1 -420910342#0 420910321 420910333 24918887#0 24918887#1 24918887#2 353552123#1 353552123#2 353552123#3 36739013 128476278 431924426#0 431924426#1"/>
    </vehicle>
    <vehicle id="40" depart="40.00">
        <route edges="421483699#0 421483699#1 431924426#1"/>
    </vehicle>
    <vehicle id="41" depart="41.00">
        <route edges="354423304#2 351942429#0 351942429#1 351942429#2 431750569#0 431750569#1 541724221 431920751"/>
    </vehicle>
    <vehicle id="42" depart="42.00">
        <route edges="351942429#1 351942429#2 431750569#0 431750569#1 541724222#0 541724222#1 399725775"/>
    </vehicle>
    <vehicle id="43" depart="43.00">
        <route edges="31910394#1 420910317 24680727 31910391 24679590 354423304#0 354423304#1 354423304#2 351942429#0 351942429#1 351942429#2 431750569#0 431750569#1 541724222#0 541724222#1 399725775"/>
    </vehicle>
    <vehicle id="44" depart="44.00">
        <route edges="353556189 425431688 31910441"/>
    </vehicle>
    <vehicle id="45" depart="45.00">
        <route edges="31281345 579621131 31910395#0 31910395#1 354423304#0 31910357#1 31910357#2 351942413#1"/>
    </vehicle>
    <vehicle id="47" depart="47.00">
        <route edges="-31910413 31297392 420910342#0 420910342#1 420910342#2 420910334 420910331 431718512 422450528 422450526"/>
    </vehicle>
    <vehicle id="48" depart="48.00">
        <route edges="351942414#0 24918887#2 353552123#1 31281345 579621131 31910395#0 31910395#1 31910394#0 24680728#2 31910391 765812809 765812811"/>
    </vehicle>
    <vehicle id="50" depart="50.00">
        <route edges="-420910318 420910317 24680727 31910391 24679590 354423304#0 31910357#1 31910357#2 351942413#1"/>
    </vehicle>
    <vehicle id="51" depart="51.00">
        <route edges="579621131 31910395#0 31910395#1 354423304#0 354423304#1 354423304#2 351942429#0 351942429#1 351942429#2 128476278 431924426#0 431924426#1"/>
    </vehicle>
    <vehicle id="52" depart="52.00">
        <route edges="31297392 420910342#0 420910342#1 420910342#2 420910334 420910331 431718512"/>
    </vehicle>
    <vehicle id="53" depart="53.00">
        <route edges="351942414#1 425431676 425431687 24918887#1 24918887#2 353552123#1 353552123#2 353552123#3 36739013 128476278 431924426#0 431924426#1"/>
    </vehicle>
    <vehicle id="56" depart="56.00">
        <route edges="353556189 425431687 24918887#1 24918887#2 353552123#1 31281345"/>
    </vehicle>
    <vehicle id="57" depart="57.00">
        <route edges="422450530#0 422450530#1 431716082 431716081 24680727 31910391 24679590 354423304#0 354423304#1 354423304#2 351942429#0"/>
    </vehicle>
    <vehicle id="58" depart="58.00">
        <route edges="24679586 24680727 31910391 24679590 354423304#0"/>
    </vehicle>
    <vehicle id="59" depart="59.00">
        <route edges="431716082 431716081 24680727 31910391"/>
    </vehicle>
    <vehicle id="61" depart="61.00">
        <route edges="420910342#0 420910342#1 24734053#0"/>
    </vehicle>
    <vehicle id="62" depart="62.00">
        <route edges="421483699#0 421483699#1 421483699#2 351942429#1 425625696 352907817#1 351942413#0 351942413#1 351942413#2 351942414#0 351942414#1 425431676 425431688 31910426 31910413"/>
    </vehicle>
    <vehicle id="63" depart="63.00">
        <route edges="425431688 31910441 -420910333 420910333 24918887#0 24918887#1 351942414#1 425431676 425431687"/>
    </vehicle>
    <vehicle id="64" depart="64.00">
        <route edges="541724222#1 409656667 431924426#0 421483699#2 351942429#1 425625696 352907817#1 351942413#0 351942413#1 351942413#2 351942414#0 351942414#1 425431676 425431688 31910426"/>
    </vehicle>
    <vehicle id="65" depart="65.00">
        <route edges="24679586 24680727 31910391 24679590 354423304#0 354423304#1 354423304#2 351942429#0 351942429#1 351942429#2 128476278 431924426#0"/>
    </vehicle>
    <vehicle id="69" depart="69.00">
        <route edges="354423304#1 354423304#2 351942429#0 351942429#1 351942429#2 128476278 425625698 425625697"/>
    </vehicle>
    <vehicle id="70" depart="70.00">
        <route edges="351942414#1 425431676 425431688 31910426 31297392 420910342#0 420910342#1 24734053#0 24734053#1"/>
    </vehicle>
    <vehicle id="71" depart="71.00">
        <route edges="-765811706 31910404#1 31910404#2 420910333 24918887#0 24918887#1 24918887#2 353552123#1 353552123#2 353552123#3"/>
    </vehicle>
    <vehicle id="72" depart="72.00">
        <route edges="425625696 352907817#1 351942413#0 351942413#1 351942413#2 351942414#0 351942414#1 425431676 425431688 31910453 -420910312 -420910337"/>
    </vehicle>
    <vehicle id="73" depart="73.00">
        <route edges="421483699#2 351942429#1 425625696 352907817#1 351942413#0 351942413#1 351942413#2 351942414#0 351942414#1 425431676 425431688 31910426"/>
    </vehicle>
    <vehicle id="75" depart="75.00">
        <route edges="420910342#1 -420910342#1 -420910342#0 420910321 420910333 24918887#0 24918887#1 351942414#1 425431676 425431688 31910426 31910413"/>
    </vehicle>
    <vehicle id="76" depart="76.00">
        <route edges="420910342#0 -420910342#0 420910321 420910333 24918887#0 24918887#1 351942414#1 425431676 425431688 31910441"/>
    </vehicle>
    <vehicle id="78" depart="78.00">
        <route edges="420910305"/>
    </vehicle>
    <vehicle id="79" depart="79.00">
        <route edges="420910305 60355155#1 422450530#1 420910335 -420910342#2 -420910342#1 -420910342#0 420910321 420910333 24918887#0 24918887#1 24918887#2 353552123#1 353552123#2 353552123#3 36739013"/>
    </vehicle>
    <vehicle id="80" depart="80.00">
        <route edges="425431688 31910426 31297392 420910342#0 420910342#1 420910342#2 420910334 24679589 431716082 431716081 24680727 31910391 24679590 31910394#0 31910394#1 420910318"/>
    </vehicle>
    <vehicle id="82" depart="82.00">
        <route edges="31910391 24679590 354423304#0 354423304#1 354423304#2 351942429#0 351942429#1 425625696"/>
    </vehicle>
    <vehicle id="84" depart="84.00">
        <route edges="351942414#1 425431676 425431688 31910426 31297392 420910342#0 420910342#1 420910342#2 420910334 24679589 431716082 431716081 24680727 31910391 24679590 354423304#0"/>
    </vehicle>
    <vehicle id="85" depart="85.00">
        <route edges="-61897521 420910317 -431716081 -431716082 420910335 -420910342#2 24734053#0 24734053#1 24734053#2 420910337 -420910337"/>
    </vehicle>
    <vehicle id="88" depart="88.00">
        <route edges="24679580 422450527 422450530#0 422450530#1 431716082 420910311#0 420910311#1"/>
    </vehicle>
    <vehicle id="89" depart="89.00">
        <route edges="431924426#0 421483699#2 351942429#1 425625696 352907817#1 351942413#0 351942413#1 579621131 31910404#0 31910404#1 31910404#2 -420910321 420910342#0 420910342#1 420910342#2 420910334 420910331 431718512"/>
    </vehicle>
    <vehicle id="91" depart="91.00">
        <route edges="128476278 431924426#0 421483699#2 351942429#1 425625696 352907817#1 351942413#0 351942413#1 579621131 31910395#0 31910395#1 31910394#0 24680728#2 31910391"/>
    </vehicle>
    <vehicle id="92" depart="92.00">
        <route edges="24679580 422450527 422450530#0 422450530#1 431716082 431716081 24680727 31910391 24679590"/>
    </vehicle>
    <vehicle id="93" depart="93.00">
        <route edges="-420910318 420910317 24680727 31910391 24679590 354423304#0 354423304#1 354423304#2 351942429#0 351942429#1 351942429#2 431750569#0 431750569#1 541724222#0 541724222#1 409656667"/>
    </vehicle>
    <vehicle id="94" depart="94.00">
        <route edges="36739013 128476278 431924426#0 421483699#2 351942429#1"/>
    </vehicle>
    <vehicle id="95" depart="95.00">
        <route edges="351942413#1"/>
    </vehicle>
    <vehicle id="96" depart="96.00">
        <route edges="31910391 765812809 765812811 765812810 31910404#2 420910333 24918887#0 24918887#1 351942414#1 425431676 425431688 31910453 -420910312 -420910337"/>
    </vehicle>
    <vehicle id="97" depart="97.00">
        <route edges="351942413#0 351942413#1 579621131 31910404#0 31910404#1 31910404#2 -420910321 420910342#0 420910342#1 420910342#2 420910334 420910331 431718512"/>
    </vehicle>
    <vehicle id="100" depart="100.00">
        <route edges="425431688 31910426 31297392 420910342#0 420910342#1 420910342#2 420910334 24679589 431716082 -431716082"/>
    </vehicle>
    <vehicle id="101" depart="101.00">
        <route edges="431924426#0 421483699#2 351942429#1 351942429#2 128476278"/>
    </vehicle>
    <vehicle id="104" depart="104.00">
        <route edges="421483699#0 421483699#1 421483699#2 351942429#1 425625696 352907817#1 351942413#0 351942413#1 579621131 31910404#0 31910404#1"/>
    </vehicle>
    <vehicle id="105" depart="105.00">
        <route edges="409656667 431924426#0 421483699#2 351942429#1 425625696 352907817#1 351942413#0 351942413#1 579621131 31910404#0 31910404#1 31910404#2 -420910321 420910342#0 420910342#1 24734053#0 24734053#1"/>
    </vehicle>
    <vehicle id="106" depart="106.00">
        <route edges="354423304#0 354423304#1 354423304#2 351942429#0 351942429#1 351942429#2 431750569#0 431750569#1 541724222#0 541724222#1 409656667"/>
    </vehicle>
    <vehicle id="107" depart="107.00">
        <route edges="24918887#2 353552123#1"/>
    </vehicle>
    <vehicle id="109" depart="109.00">
        <route edges="353552123#0 353552123#1 31281345 579621131"/>
    </vehicle>
    <vehicle id="110" depart="110.00">
        <route edges="24918887#0 24918887#1 24918887#2 353552123#1 353552123#2 353552123#3 36739013 128476278 431924426#0 421483699#2 351942429#1 425625696"/>
    </vehicle>
    <vehicle id="111" depart="111.00">
        <route edges="421483699#2 351942429#1 425625696 352907817#1 351942413#0 351942413#1 351942413#2 351942414#0 351942414#1 425431676 425431688 31910426 31910413"/>
    </vehicle>
    <vehicle id="113" depart="113.00">
        <route edges="24680728#0 24680728#1 24680728#2 31910391 24679590 354423304#0 31910357#1 31910357#2 351942413#1 351942413#2 351942414#0"/>
    </vehicle>
    <vehicle id="114" depart="114.00">
        <route edges="31281345 579621131 31910404#0 31910404#1 31910404#2 -420910321 420910342#0 420910342#1 24734053#0"/>
    </vehicle>
    <vehicle id="115" depart="115.00">
        <route edges="24679580 422450527 422450530#0 422450530#1 420910335 -420910342#2 -420910342#1 -420910342#0 420910321 420910333 24918887#0 24918887#1 24918887#2 353552123#1 31281345 579621131"/>
    </vehicle>
    <vehicle id="118" depart="118.00">
        <route edges="353552123#0 353552123#1 31281345 579621131 31910395#0 31910395#1 31910394#0 31910394#1 420910318"/>
    </vehicle>
    <vehicle id="119" depart="119.00">
        <route edges="-61897521 420910317 24680727 31910391 765812809 765812811 765812810 31910404#2 420910333 24918887#0 24918887#1 351942414#1 425431676 425431688 31910426 31910413"/>
    </vehicle>
    <vehicle id="122" depart="122.00">
        <route edges="60355154 420910304 420910305 60355155#1 422450530#1 420910335 -420910342#2 24734053#0"/>
    </vehicle>
    <vehicle id="123" depart="123.00">
        <route edges="420910305 60355155#1 422450530#1 431716082 431716081 24680727 31910391 24679590 354423304#0 354423304#1 354423304#2 351942429#0 351942429#1 351942429#2 431750569#0 431750569#1 541724222#0 541724222#1 399725775"/>
    </vehicle>
    <vehicle id="125" depart="125.00">
        <route edges="425431676 425431688 31910426 31297392 420910342#0 420910342#1 420910342#2 420910334 24679589 431716082 420910311#0 420910311#1"/>
    </vehicle>
    <vehicle id="126" depart="126.00">
        <route edges="425431687"/>
    </vehicle>
    <vehicle id="129" depart="129.00">
        <route edges="579621131 31910404#0 31910404#1 31910404#2 420910333 24918887#0 24918887#1 351942414#1 425431676 425431688 31910426"/>
    </vehicle>
    <vehicle id="131" depart="131.00">
        <route edges="579621131 31910404#0 31910404#1 31910404#2 -420910321 420910342#0 420910342#1 24734053#0"/>
    </vehicle>
    <vehicle id="132" depart="132.00">
        <route edges="-61897521 420910317 -431716081 -431716082 420910335 -420910342#2 24734053#0 24734053#1 24734053#2 420910337"/>
    </vehicle>
    <vehicle id="133" depart="133.00">
        <route edges="425431676 425431688 31910426 31297392 420910342#0 420910342#1 420910342#2 420910334 24679589 431716082 420910311#0 60355154"/>
    </vehicle>
    <vehicle id="134" depart="134.00">
        <route edges="31910394#1 420910317 -431716081 -431716082 -24679589 420910331 431718512 422450528 422450526"/>
    </vehicle>
    <vehicle id="136" depart="136.00">
        <route edges="24918887#1 351942414#1 425431676 425431688 31910426 31297392 420910342#0 420910342#1 420910342#2 420910334 24679589 431716082"/>
    </vehicle>
    <vehicle id="138" depart="138.00">
        <route edges="-420910342#1 420910342#1 420910342#2 420910334 24679589 431716082 420910311#0 60355154 420910304 420910305"/>
    </vehicle>
    <vehicle id="139" depart="139.00">
        <route edges="31910394#1 420910317 24680727 31910391 765812809 765812811 765812810 31910404#2 420910333 24918887#0 24918887#1 24918887#2 353552123#1 31281345"/>
    </vehicle>
    <vehicle id="142" depart="142.00">
        <route edges="31281345 579621131 31910404#0 31910404#1 31910404#2 -420910321 420910342#0 420910342#1 420910342#2 420910334 420910331 431718512 422450528 422450526"/>
    </vehicle>
    
</routes>
