<?xml version="1.0" encoding="UTF-8"?>
<!-- generated on 2021-01-14 19:51:09.665671 by randomTrips.py v1.4.0-0000000000
  options: -n centro.net.xml -r centro.rou.xml -e 145 -l
-->
<routes xmlns:xsi="http://www.w3.org/2001/XMLSchema-instance" xsi:noNamespaceSchemaLocation="http://sumo.dlr.de/xsd/routes_file.xsd">
    <trip id="0" depart="0.00" from="351942413#0" to="24679585"/>
    <trip id="1" depart="1.00" from="353552123#2" to="61897521"/>
    <trip id="2" depart="2.00" from="541724221" to="354423304#1"/>
    <trip id="3" depart="3.00" from="31297392" to="431750569#0"/>
    <trip id="4" depart="4.00" from="354423304#1" to="420910337"/>
    <trip id="5" depart="5.00" from="128476278" to="-370247381"/>
    <trip id="6" depart="6.00" from="60355155#0" to="31910441"/>
    <trip id="7" depart="7.00" from="31281345" to="431718512"/>
    <trip id="8" depart="8.00" from="354423304#2" to="579621131"/>
    <trip id="9" depart="9.00" from="24734053#1" to="431920751"/>
    <trip id="10" depart="10.00" from="370247381" to="420910318"/>
    <trip id="11" depart="11.00" from="354423304#0" to="31910413"/>
    <trip id="12" depart="12.00" from="541724222#1" to="-420910342#0"/>
    <trip id="13" depart="13.00" from="431750569#0" to="24918887#1"/>
    <trip id="14" depart="14.00" from="425431676" to="31910357#2"/>
    <trip id="15" depart="15.00" from="354423304#1" to="353552123#3"/>
    <trip id="16" depart="16.00" from="351942429#0" to="422450530#0"/>
    <trip id="17" depart="17.00" from="36739013" to="431920752"/>
    <trip id="18" depart="18.00" from="31910394#1" to="60355155#0"/>
    <trip id="19" depart="19.00" from="-61897521" to="431920752"/>
    <trip id="20" depart="20.00" from="24918887#0" to="31910441"/>
    <trip id="21" depart="21.00" from="541724221" to="354423304#1"/>
    <trip id="22" depart="22.00" from="370247381" to="31910404#2"/>
    <trip id="23" depart="23.00" from="353556189" to="431924426#1"/>
    <trip id="24" depart="24.00" from="31281345" to="579621131"/>
    <trip id="25" depart="25.00" from="24918887#1" to="36739013"/>
    <trip id="26" depart="26.00" from="31910394#0" to="425431688"/>
    <trip id="27" depart="27.00" from="24734053#2" to="351942413#1"/>
    <trip id="28" depart="28.00" from="431735740" to="24680728#2"/>
    <trip id="29" depart="29.00" from="354423304#0" to="351942414#1"/>
    <trip id="30" depart="30.00" from="-420910342#0" to="31910394#0"/>
    <trip id="31" depart="31.00" from="-61897521" to="36739013"/>
    <trip id="32" depart="32.00" from="353556189" to="409656667"/>
    <trip id="33" depart="33.00" from="420910337" to="351942413#1"/>
    <trip id="34" depart="34.00" from="431735740" to="420910337"/>
    <trip id="35" depart="35.00" from="409656667" to="351942429#0"/>
    <trip id="36" depart="36.00" from="-420910337" to="128476278"/>
    <trip id="37" depart="37.00" from="431718577#0" to="354423304#1"/>
    <trip id="38" depart="38.00" from="24679586" to="422450526"/>
    <trip id="39" depart="39.00" from="24679580" to="431924426#1"/>
    <trip id="40" depart="40.00" from="421483699#0" to="431924426#1"/>
    <trip id="41" depart="41.00" from="354423304#2" to="431920751"/>
    <trip id="42" depart="42.00" from="351942429#1" to="399725775"/>
    <trip id="43" depart="43.00" from="31910394#1" to="399725775"/>
    <trip id="44" depart="44.00" from="353556189" to="31910441"/>
    <trip id="45" depart="45.00" from="31281345" to="351942413#1"/>
    <trip id="46" depart="46.00" from="24734053#0" to="31281345"/>
    <trip id="47" depart="47.00" from="-31910413" to="422450526"/>
    <trip id="48" depart="48.00" from="351942414#0" to="765812811"/>
    <trip id="49" depart="49.00" from="-420910337" to="421483699#2"/>
    <trip id="50" depart="50.00" from="-420910318" to="351942413#1"/>
    <trip id="51" depart="51.00" from="579621131" to="431924426#1"/>
    <trip id="52" depart="52.00" from="31297392" to="431718512"/>
    <trip id="53" depart="53.00" from="351942414#1" to="431924426#1"/>
    <trip id="54" depart="54.00" from="-420910337" to="31910413"/>
    <trip id="55" depart="55.00" from="24734053#0" to="31910357#2"/>
    <trip id="56" depart="56.00" from="353556189" to="31281345"/>
    <trip id="57" depart="57.00" from="422450530#0" to="351942429#0"/>
    <trip id="58" depart="58.00" from="24679586" to="354423304#0"/>
    <trip id="59" depart="59.00" from="431716082" to="31910391"/>
    <trip id="60" depart="60.00" from="422450526" to="420910337"/>
    <trip id="61" depart="61.00" from="420910342#0" to="24734053#0"/>
    <trip id="62" depart="62.00" from="421483699#0" to="31910413"/>
    <trip id="63" depart="63.00" from="425431688" to="425431687"/>
    <trip id="64" depart="64.00" from="541724222#1" to="31910426"/>
    <trip id="65" depart="65.00" from="24679586" to="431924426#0"/>
    <trip id="66" depart="66.00" from="-420910337" to="409656667"/>
    <trip id="67" depart="67.00" from="24680728#0" to="423684818"/>
    <trip id="68" depart="68.00" from="422450526" to="423684817"/>
    <trip id="69" depart="69.00" from="354423304#1" to="425625697"/>
    <trip id="70" depart="70.00" from="351942414#1" to="24734053#1"/>
    <trip id="71" depart="71.00" from="-765811706" to="353552123#3"/>
    <trip id="72" depart="72.00" from="425625696" to="-420910337"/>
    <trip id="73" depart="73.00" from="421483699#2" to="31910426"/>
    <trip id="74" depart="74.00" from="420910337" to="36739013"/>
    <trip id="75" depart="75.00" from="420910342#1" to="31910413"/>
    <trip id="76" depart="76.00" from="420910342#0" to="31910441"/>
    <trip id="77" depart="77.00" from="423684818" to="431920751"/>
    <trip id="78" depart="78.00" from="420910305" to="420910305"/>
    <trip id="79" depart="79.00" from="420910305" to="36739013"/>
    <trip id="80" depart="80.00" from="425431688" to="420910318"/>
    <trip id="81" depart="81.00" from="354423304#0" to="421483699#0"/>
    <trip id="82" depart="82.00" from="31910391" to="425625696"/>
    <trip id="83" depart="83.00" from="421483699#0" to="60355155#0"/>
    <trip id="84" depart="84.00" from="351942414#1" to="354423304#0"/>
    <trip id="85" depart="85.00" from="-61897521" to="-420910337"/>
    <trip id="86" depart="86.00" from="24734053#0" to="422450526"/>
    <trip id="87" depart="87.00" from="422450526" to="431716082"/>
    <trip id="88" depart="88.00" from="24679580" to="420910311#1"/>
    <trip id="89" depart="89.00" from="431924426#0" to="431718512"/>
    <trip id="90" depart="90.00" from="370247381" to="24918887#3"/>
    <trip id="91" depart="91.00" from="128476278" to="31910391"/>
    <trip id="92" depart="92.00" from="24679580" to="24679590"/>
    <trip id="93" depart="93.00" from="-420910318" to="409656667"/>
    <trip id="94" depart="94.00" from="36739013" to="351942429#1"/>
    <trip id="95" depart="95.00" from="351942413#1" to="351942413#1"/>
    <trip id="96" depart="96.00" from="31910391" to="-420910337"/>
    <trip id="97" depart="97.00" from="351942413#0" to="431718512"/>
    <trip id="98" depart="98.00" from="420910337" to="61897521"/>
    <trip id="99" depart="99.00" from="431716080" to="420910317"/>
    <trip id="100" depart="100.00" from="425431688" to="-431716082"/>
    <trip id="101" depart="101.00" from="431924426#0" to="128476278"/>
    <trip id="102" depart="102.00" from="370247381" to="-431716082"/>
    <trip id="103" depart="103.00" from="-420910318" to="431718577#1"/>
    <trip id="104" depart="104.00" from="421483699#0" to="31910404#1"/>
    <trip id="105" depart="105.00" from="409656667" to="24734053#1"/>
    <trip id="106" depart="106.00" from="354423304#0" to="409656667"/>
    <trip id="107" depart="107.00" from="24918887#2" to="353552123#1"/>
    <trip id="108" depart="108.00" from="351942413#1" to="24680728#0"/>
    <trip id="109" depart="109.00" from="353552123#0" to="579621131"/>
    <trip id="110" depart="110.00" from="24918887#0" to="425625696"/>
    <trip id="111" depart="111.00" from="421483699#2" to="31910413"/>
    <trip id="112" depart="112.00" from="420910304" to="421483699#0"/>
    <trip id="113" depart="113.00" from="24680728#0" to="351942414#0"/>
    <trip id="114" depart="114.00" from="31281345" to="24734053#0"/>
    <trip id="115" depart="115.00" from="24679580" to="579621131"/>
    <trip id="116" depart="116.00" from="423684818" to="579621131"/>
    <trip id="117" depart="117.00" from="-420910318" to="422450530#0"/>
    <trip id="118" depart="118.00" from="353552123#0" to="420910318"/>
    <trip id="119" depart="119.00" from="-61897521" to="31910413"/>
    <trip id="120" depart="120.00" from="420910337" to="541724222#1"/>
    <trip id="121" depart="121.00" from="-420910312" to="-420910342#1"/>
    <trip id="122" depart="122.00" from="60355154" to="24734053#0"/>
    <trip id="123" depart="123.00" from="420910305" to="399725775"/>
    <trip id="124" depart="124.00" from="420910312" to="31910453"/>
    <trip id="125" depart="125.00" from="425431676" to="420910311#1"/>
    <trip id="126" depart="126.00" from="425431687" to="425431687"/>
    <trip id="127" depart="127.00" from="541724221" to="409656667"/>
    <trip id="128" depart="128.00" from="24734053#0" to="421483699#0"/>
    <trip id="129" depart="129.00" from="579621131" to="31910426"/>
    <trip id="130" depart="130.00" from="24734053#0" to="420910317"/>
    <trip id="131" depart="131.00" from="579621131" to="24734053#0"/>
    <trip id="132" depart="132.00" from="-61897521" to="420910337"/>
    <trip id="133" depart="133.00" from="425431676" to="60355154"/>
    <trip id="134" depart="134.00" from="31910394#1" to="422450526"/>
    <trip id="135" depart="135.00" from="422450526" to="423684819#0"/>
    <trip id="136" depart="136.00" from="24918887#1" to="431716082"/>
    <trip id="137" depart="137.00" from="31910453" to="31910391"/>
    <trip id="138" depart="138.00" from="-420910342#1" to="420910305"/>
    <trip id="139" depart="139.00" from="31910394#1" to="31281345"/>
    <trip id="140" depart="140.00" from="31910453" to="354423304#1"/>
    <trip id="141" depart="141.00" from="24918887#3" to="579621131"/>
    <trip id="142" depart="142.00" from="31281345" to="422450526"/>
    
</routes>
