<?xml version="1.0" encoding="UTF-8"?>

<!-- generated on Thu Jan 14 18:06:56 2021 by Eclipse SUMO polyconvert Version 1.4.0
<configuration xmlns:xsi="http://www.w3.org/2001/XMLSchema-instance" xsi:noNamespaceSchemaLocation="http://sumo.dlr.de/xsd/polyconvertConfiguration.xsd">

    <input>
        <net-file value="centro.net.xml"/>
        <osm-files value="centro.osm"/>
        <type-file value="typemap.xml"/>
    </input>

    <output>
        <output-file value="centro.poly.xml"/>
    </output>

    <processing>
        <poi-layer-offset value="5"/>
    </processing>

</configuration>
-->

<additional xmlns:xsi="http://www.w3.org/2001/XMLSchema-instance" xsi:noNamespaceSchemaLocation="http://sumo.dlr.de/xsd/additional_file.xsd">
    <location netOffset="-776288.14,24721.42" convBoundary="-1716.22,-3724.98,2317.87,2729.68" origBoundary="-78.533234,-0.257123,-78.497023,-0.198776" projParameter="+proj=utm +zone=17 +ellps=WGS84 +datum=WGS84 +units=m +no_defs"/>

    <poly id="107938409" type="unknown" color="51,128,255" fill="0" layer="-1.00" shape="172.197576,845.647655 248.127020,789.842143 264.504011,815.451408 288.131585,839.676559 282.987602,850.408973"/>
    <poly id="128476278" type="unknown" color="51,128,255" fill="0" layer="-1.00" shape="315.808727,230.140643 248.054521,151.778343"/>
    <poly id="150507139" type="unknown" color="51,128,255" fill="0" layer="-1.00" shape="126.143624,991.460598 107.884734,968.108588 80.959021,935.542130 71.713667,930.255299"/>
    <poly id="159408371" type="building" color="255,230,230" fill="1" layer="2.00" shape="233.969828,380.175075 218.728991,355.472878 242.884654,340.145937 252.540346,334.667905 254.813146,338.606123 276.608057,326.222454 281.608524,323.378306 288.825236,319.283613 294.516191,316.041063 295.763524,315.332792 300.086308,322.855236 304.932726,331.273734 308.587035,337.612498 302.049674,341.330918 295.723914,344.927605 258.248242,366.219986 240.573965,376.157933 233.969828,380.175075"/>
    <poly id="159408371#1" type="historic" color="128,255,128" fill="1" layer="2.00" shape="233.969828,380.175075 218.728991,355.472878 242.884654,340.145937 252.540346,334.667905 254.813146,338.606123 276.608057,326.222454 281.608524,323.378306 288.825236,319.283613 294.516191,316.041063 295.763524,315.332792 300.086308,322.855236 304.932726,331.273734 308.587035,337.612498 302.049674,341.330918 295.723914,344.927605 258.248242,366.219986 240.573965,376.157933 233.969828,380.175075"/>
    <poly id="159408376" type="amenity" color="237,199,199" fill="1" layer="2.00" shape="537.579658,313.765608 551.890096,302.633336 577.649071,283.710440 598.269819,309.684089 558.578800,338.024349 553.032773,342.129834 547.897179,336.222784 552.819619,332.958229 537.579658,313.765608"/>
    <poly id="159408376#1" type="building" color="255,230,230" fill="1" layer="2.00" shape="537.579658,313.765608 551.890096,302.633336 577.649071,283.710440 598.269819,309.684089 558.578800,338.024349 553.032773,342.129834 547.897179,336.222784 552.819619,332.958229 537.579658,313.765608"/>
    <poly id="159408376#2" type="historic" color="128,255,128" fill="1" layer="2.00" shape="537.579658,313.765608 551.890096,302.633336 577.649071,283.710440 598.269819,309.684089 558.578800,338.024349 553.032773,342.129834 547.897179,336.222784 552.819619,332.958229 537.579658,313.765608"/>
    <poly id="200724088" type="unknown" color="51,128,255" fill="0" layer="-1.00" shape="495.953533,426.221923 567.939387,366.079820 603.912403,350.153436 615.115824,341.842874 649.570921,307.020264 726.870455,251.899974 807.021287,196.524682"/>
    <poly id="219886405" type="unknown" color="51,128,255" fill="0" layer="-1.00" shape="83.139397,919.189977 84.087734,929.091622 113.129908,963.195557 132.691841,985.938865"/>
    <poly id="24679580" type="unknown" color="51,128,255" fill="0" layer="-1.00" shape="208.036616,1101.971387 190.503827,1091.784764 179.599220,1088.378979 169.887332,1090.903021 163.439179,1095.362641 159.185275,1100.275509 146.313928,1125.812072 140.434208,1132.738752 133.896968,1137.309019 125.989379,1139.511924 118.760955,1140.165835 110.095416,1138.839617 103.122629,1136.163384 95.313981,1130.301008 91.771312,1125.334085 88.640467,1118.630131 86.768087,1111.173660 86.544174,1104.026699 88.625450,1094.622419 92.066092,1088.536958 121.042281,1059.158772 124.583324,1054.069004 139.069552,1027.868369"/>
    <poly id="24679585" type="unknown" color="51,128,255" fill="0" layer="-1.00" shape="215.813588,912.596666 214.601090,922.045070 200.860889,946.829484 178.758658,987.480269 175.574745,996.973243 174.207438,1013.369527 178.921109,1027.651702 186.118181,1039.709718 204.344842,1070.374708"/>
    <poly id="24679586" type="unknown" color="51,128,255" fill="0" layer="-1.00" shape="44.054025,904.902350 145.101930,863.939994 172.197576,845.647655"/>
    <poly id="24679589" type="unknown" color="51,128,255" fill="0" layer="-1.00" shape="222.651543,907.993147 216.368506,900.448883"/>
    <poly id="24679590" type="boundary.administrative" color="128,0,51" fill="0" layer="-12.00" shape="313.720252,732.843410 312.248800,725.287295 302.517049,674.750920"/>
    <poly id="24679923" type="unknown" color="51,128,255" fill="0" layer="-1.00" shape="585.203707,977.025581 580.403688,979.803301 562.199713,952.092197 530.471371,906.869791"/>
    <poly id="24680727" type="unknown" color="51,128,255" fill="0" layer="-1.00" shape="172.197576,845.647655 272.771104,764.115521"/>
    <poly id="24680728" type="boundary.administrative" color="128,0,51" fill="0" layer="-12.00" shape="147.045790,628.066547 166.796841,649.106009 203.279628,685.532012 235.496107,719.082230 242.458146,724.048586 272.771104,764.115521"/>
    <poly id="24734053" type="unknown" color="51,128,255" fill="0" layer="-1.00" shape="237.729131,888.341959 235.057695,898.598235 187.680213,987.810724 185.319948,993.851762 183.360938,1001.673954 182.793947,1008.112985 182.939954,1015.591868 183.753995,1021.577073 186.406009,1028.856407 189.815087,1034.188447 215.291831,1060.360493 221.240213,1064.762792 229.026223,1068.335034 237.313157,1070.148102 241.077780,1070.103239 244.686473,1070.069464 250.199603,1069.083922 256.859701,1066.604625 298.789142,1035.852427 302.687070,1033.639099 309.648099,1032.420988 316.219184,1030.483813 326.922067,1026.167319"/>
    <poly id="24918887" type="unknown" color="51,128,255" fill="0" layer="-1.00" shape="368.908416,730.123792 448.046011,676.563495 524.743790,619.264077 530.846735,615.224893 535.724515,611.263356 604.972189,561.156376 609.270893,557.792359 614.282436,554.472478 653.205135,526.973218 681.659562,508.105218 686.782383,504.165758 693.074643,499.927390 762.969009,453.791990 768.492850,450.162238"/>
    <poly id="24919583" type="unknown" color="51,128,255" fill="0" layer="-1.00" shape="176.994876,154.611477 218.388957,120.883052"/>
    <poly id="31134646" type="amenity" color="237,199,199" fill="1" layer="2.00" shape="483.967095,280.927062 558.627686,363.979309 524.450925,398.093772 502.984000,373.812979 494.907581,365.494579 457.766531,323.260366 447.784965,311.623243 479.868966,284.777844 483.967095,280.927062"/>
    <poly id="31134646#1" type="building" color="255,230,230" fill="1" layer="2.00" shape="483.967095,280.927062 558.627686,363.979309 524.450925,398.093772 502.984000,373.812979 494.907581,365.494579 457.766531,323.260366 447.784965,311.623243 479.868966,284.777844 483.967095,280.927062"/>
    <poly id="31134646#2" type="historic" color="128,255,128" fill="1" layer="2.00" shape="483.967095,280.927062 558.627686,363.979309 524.450925,398.093772 502.984000,373.812979 494.907581,365.494579 457.766531,323.260366 447.784965,311.623243 479.868966,284.777844 483.967095,280.927062"/>
    <poly id="31141991" type="boundary.administrative" color="128,0,51" fill="0" layer="-12.00" shape="506.676187,879.535777 528.737603,861.675690 554.462930,840.849980"/>
    <poly id="31149837" type="building" color="255,230,230" fill="1" layer="2.00" shape="500.131743,168.751586 517.114595,153.558549 535.451272,174.786314 518.713641,191.107785 502.181489,170.886495 500.131743,168.751586"/>
    <poly id="31149837#1" type="historic" color="128,255,128" fill="1" layer="2.00" shape="500.131743,168.751586 517.114595,153.558549 535.451272,174.786314 518.713641,191.107785 502.181489,170.886495 500.131743,168.751586"/>
    <poly id="31149837#2" type="tourism" color="207,245,201" fill="1" layer="2.00" shape="500.131743,168.751586 517.114595,153.558549 535.451272,174.786314 518.713641,191.107785 502.181489,170.886495 500.131743,168.751586"/>
    <poly id="31150031" type="building" color="255,230,230" fill="1" layer="2.00" shape="519.000815,443.123109 544.859826,422.872606 575.217187,461.158325 549.358161,481.386699 519.000815,443.123109"/>
    <poly id="31152468" type="building" color="255,230,230" fill="1" layer="2.00" shape="425.643607,250.600740 445.499713,233.360494 453.353478,242.287414 453.788679,247.177404 452.553095,251.536627 437.764024,264.372754 425.643607,250.600740"/>
    <poly id="31152468#1" type="tourism" color="207,245,201" fill="1" layer="2.00" shape="425.643607,250.600740 445.499713,233.360494 453.353478,242.287414 453.788679,247.177404 452.553095,251.536627 437.764024,264.372754 425.643607,250.600740"/>
    <poly id="31153878" type="building" color="255,230,230" fill="1" layer="2.00" shape="391.072102,657.167523 420.403711,689.578710 374.008486,723.318911 364.262742,723.176687 338.679779,661.203264 348.235067,654.618917 369.857155,674.640261 391.072102,657.167523"/>
    <poly id="31153878#1" type="shop" color="237,199,255" fill="1" layer="2.00" shape="391.072102,657.167523 420.403711,689.578710 374.008486,723.318911 364.262742,723.176687 338.679779,661.203264 348.235067,654.618917 369.857155,674.640261 391.072102,657.167523"/>
    <poly id="31153884" type="building" color="255,230,230" fill="1" layer="2.00" shape="225.220806,885.887908 191.577309,843.785826 264.954828,779.793749 325.938356,731.381024 322.294641,721.634696 314.900089,728.052729 306.617879,687.274104 309.479641,683.058447 315.571906,681.840461 321.664826,684.605329 336.933972,678.528964 347.318754,704.050709 328.843074,717.440560 335.393499,725.372000 346.652626,717.127856 352.746454,725.413403 345.173400,730.050246 350.966753,739.862604 327.621245,805.738405 225.220806,885.887908"/>
    <poly id="31153884#1" type="shop" color="237,199,255" fill="1" layer="2.00" shape="225.220806,885.887908 191.577309,843.785826 264.954828,779.793749 325.938356,731.381024 322.294641,721.634696 314.900089,728.052729 306.617879,687.274104 309.479641,683.058447 315.571906,681.840461 321.664826,684.605329 336.933972,678.528964 347.318754,704.050709 328.843074,717.440560 335.393499,725.372000 346.652626,717.127856 352.746454,725.413403 345.173400,730.050246 350.966753,739.862604 327.621245,805.738405 225.220806,885.887908"/>
    <poly id="31154250" type="unknown" color="51,128,255" fill="0" layer="-1.00" shape="65.571374,91.280824 83.139017,109.764911 119.633832,84.722143"/>
    <poly id="31281334" type="amenity" color="237,199,199" fill="1" layer="2.00" shape="496.858457,644.460258 511.117960,662.015673 518.044842,656.316831 526.711635,665.088754 532.803351,660.496399 550.955913,646.287875 528.609012,621.343376 496.858457,644.460258"/>
    <poly id="31281334#1" type="building" color="255,230,230" fill="1" layer="2.00" shape="496.858457,644.460258 511.117960,662.015673 518.044842,656.316831 526.711635,665.088754 532.803351,660.496399 550.955913,646.287875 528.609012,621.343376 496.858457,644.460258"/>
    <poly id="31281334#2" type="tourism" color="207,245,201" fill="1" layer="2.00" shape="496.858457,644.460258 511.117960,662.015673 518.044842,656.316831 526.711635,665.088754 532.803351,660.496399 550.955913,646.287875 528.609012,621.343376 496.858457,644.460258"/>
    <poly id="31281345" type="unknown" color="51,128,255" fill="0" layer="-1.00" shape="549.269807,485.900621 503.664754,515.790693 464.474892,543.942714"/>
    <poly id="31281502" type="building" color="255,230,230" fill="1" layer="2.00" shape="270.933146,27.188680 306.569648,-2.102375 325.835298,-19.906778 335.471378,-9.597245 345.497054,-0.659648 322.021224,16.990577 355.731729,58.649954 359.653109,63.495098 327.724893,89.057131 270.933146,27.188680"/>
    <poly id="31281502#1" type="historic" color="128,255,128" fill="1" layer="2.00" shape="270.933146,27.188680 306.569648,-2.102375 325.835298,-19.906778 335.471378,-9.597245 345.497054,-0.659648 322.021224,16.990577 355.731729,58.649954 359.653109,63.495098 327.724893,89.057131 270.933146,27.188680"/>
    <poly id="31281502#2" type="tourism" color="207,245,201" fill="1" layer="2.00" shape="270.933146,27.188680 306.569648,-2.102375 325.835298,-19.906778 335.471378,-9.597245 345.497054,-0.659648 322.021224,16.990577 355.731729,58.649954 359.653109,63.495098 327.724893,89.057131 270.933146,27.188680"/>
    <poly id="31297309" type="building" color="255,230,230" fill="1" layer="2.00" shape="559.533991,657.405276 559.957318,657.914127 573.882557,674.673033 559.516279,685.097217 548.880778,692.810226 536.430003,701.829026 528.879355,707.306700 514.364014,691.775941 542.450474,670.407703 559.533991,657.405276"/>
    <poly id="31297309#1" type="shop" color="237,199,255" fill="1" layer="2.00" shape="559.533991,657.405276 559.957318,657.914127 573.882557,674.673033 559.516279,685.097217 548.880778,692.810226 536.430003,701.829026 528.879355,707.306700 514.364014,691.775941 542.450474,670.407703 559.533991,657.405276"/>
    <poly id="31297392" type="boundary.administrative" color="128,0,51" fill="0" layer="-12.00" shape="372.961875,861.446689 335.730928,813.348753"/>
    <poly id="31528427" type="unknown" color="51,128,255" fill="0" layer="-1.00" shape="108.245959,997.736488 154.127985,958.796696"/>
    <poly id="31910357" type="unknown" color="51,128,255" fill="0" layer="-1.00" shape="147.045790,628.066547 221.938509,567.481683 259.279252,538.345377 376.713020,441.752772"/>
    <poly id="31910358" type="boundary.administrative" color="128,0,51" fill="0" layer="-12.00" shape="77.365219,686.105893 147.045790,628.066547"/>
    <poly id="31910359" type="unknown" color="51,128,255" fill="0" layer="-1.00" shape="61.555935,523.530930 109.213350,579.747569 147.045790,628.066547"/>
    <poly id="31910391" type="boundary.administrative" color="128,0,51" fill="0" layer="-12.00" shape="272.771104,764.115521 313.720252,732.843410"/>
    <poly id="31910394" type="unknown" color="51,128,255" fill="0" layer="-1.00" shape="302.517049,674.750920 242.458146,724.048586 185.383043,766.176592 131.605219,810.981383"/>
    <poly id="31910395" type="boundary.administrative" color="128,0,51" fill="0" layer="-12.00" shape="337.618876,644.232057 312.851597,665.765672 302.517049,674.750920"/>
    <poly id="31910404" type="boundary.administrative" color="128,0,51" fill="0" layer="-12.00" shape="337.618876,644.232057 336.406550,654.620867 338.658595,667.830293 353.990731,706.096357 363.863021,730.755239"/>
    <poly id="31910413" type="unknown" color="51,128,255" fill="0" layer="-1.00" shape="372.961875,861.446689 357.528009,881.994100 344.990617,906.247300 346.951579,910.417913 325.617732,950.283114 306.788961,984.251061 291.156885,1018.882289"/>
    <poly id="31910426" type="boundary.administrative" color="128,0,51" fill="0" layer="-12.00" shape="440.192819,806.571857 372.961875,861.446689"/>
    <poly id="31910441" type="unknown" color="51,128,255" fill="0" layer="-1.00" shape="440.192819,806.571857 368.908416,730.123792"/>
    <poly id="31910453" type="boundary.administrative" color="128,0,51" fill="0" layer="-12.00" shape="440.192819,806.571857 506.676187,879.535777"/>
    <poly id="320726944" type="building" color="255,230,230" fill="1" layer="2.00" shape="519.000815,443.123109 544.859826,422.872606 540.949679,418.569557 529.508884,406.003330 503.416051,426.674285 519.000815,443.123109"/>
    <poly id="351942413" type="unknown" color="51,128,255" fill="0" layer="-1.00" shape="332.550132,369.659404 376.713020,441.752772 413.643322,489.574089 464.474892,543.942714 475.191456,555.026559"/>
    <poly id="351942414" type="unknown" color="51,128,255" fill="0" layer="-1.00" shape="475.191456,555.026559 526.691456,610.302324 530.846735,615.224893 533.074772,617.901891 595.337147,691.895370"/>
    <poly id="351942429" type="unknown" color="51,128,255" fill="0" layer="-1.00" shape="116.529183,367.493778 267.454692,271.769550 311.599218,233.958250 315.808727,230.140643"/>
    <poly id="351942434" type="unknown" color="51,128,255" fill="0" layer="-1.00" shape="564.367992,998.248763 521.714959,1031.700644"/>
    <poly id="351942441" type="unknown" color="51,128,255" fill="0" layer="-1.00" shape="521.714959,1031.700644 486.791144,1061.821141 489.308865,1065.139781 477.180989,1073.660636 453.548705,1089.098034 448.904658,1092.119118"/>
    <poly id="352907817" type="unknown" color="51,128,255" fill="0" layer="-1.00" shape="391.293966,316.224034 388.231492,319.012544 332.550132,369.659404"/>
    <poly id="353552123" type="unknown" color="51,128,255" fill="0" layer="-1.00" shape="673.917154,633.555615 612.757798,562.117611 609.270893,557.792359 603.867900,551.321105 549.269807,485.900621 495.953533,426.221923 483.087136,413.976778 467.903473,398.324465 391.293966,316.224034"/>
    <poly id="353556189" type="unknown" color="51,128,255" fill="0" layer="-1.00" shape="580.344375,821.152714 518.405295,748.531008"/>
    <poly id="354423304" type="unknown" color="51,128,255" fill="0" layer="-1.00" shape="302.517049,674.750920 282.954342,647.737127 221.938509,567.481683 162.377197,459.877167 118.401959,377.107618 116.529183,367.493778"/>
    <poly id="36739012" type="unknown" color="51,128,255" fill="0" layer="-1.00" shape="391.293966,316.224034 466.129595,247.451922 539.995865,176.566772"/>
    <poly id="36739013" type="unknown" color="51,128,255" fill="0" layer="-1.00" shape="391.293966,316.224034 315.808727,230.140643"/>
    <poly id="370247381" type="unknown" color="51,128,255" fill="0" layer="-1.00" shape="196.670169,1204.542667 218.696452,1176.006425 240.743795,1139.958072 267.077774,1094.803773 295.751496,1054.472755 302.622391,1046.893158 326.922067,1026.167319"/>
    <poly id="376087697" type="building" color="255,230,230" fill="1" layer="2.00" shape="481.684061,415.835678 463.543415,434.524936 446.288711,422.579237 455.330827,411.071702 465.587247,401.157105 466.043823,400.670235 481.684061,415.835678"/>
    <poly id="376087698" type="building" color="255,230,230" fill="1" layer="2.00" shape="530.911563,468.699932 514.313048,451.067478 487.953063,472.723118 495.194191,481.428885 503.891762,474.280423 505.540509,476.249451 511.131010,471.657172 517.447502,479.245681 530.911563,468.699932"/>
    <poly id="376087699" type="building" color="255,230,230" fill="1" layer="2.00" shape="514.313048,451.067478 502.872047,437.228949 476.456399,459.028424 487.953063,472.723118 514.313048,451.067478"/>
    <poly id="376087702" type="building" color="255,230,230" fill="1" layer="2.00" shape="512.218464,514.251448 523.993911,529.970723 526.701064,533.742927 508.436705,545.340497 505.228294,541.269662 493.464254,527.154593 512.218464,514.251448"/>
    <poly id="376087703" type="unknown" color="51,128,255" fill="1" layer="-1.00" shape="331.246117,364.415531 277.289938,274.345694 317.236427,242.321296 385.691979,318.670000 331.246117,364.415531"/>
    <poly id="381063363" type="unknown" color="51,128,255" fill="0" layer="-1.00" shape="354.454123,1088.760041 361.981952,1079.885909 372.962414,1070.159328 384.621741,1057.036146 414.478715,1032.835459"/>
    <poly id="399725775" type="unknown" color="51,128,255" fill="0" layer="-1.00" shape="327.168700,93.239220 240.945180,-0.000272"/>
    <poly id="409656667" type="unknown" color="51,128,255" fill="0" layer="-1.00" shape="327.168700,93.239220 248.054521,151.778343"/>
    <poly id="415521310" type="building" color="255,230,230" fill="1" layer="2.00" shape="501.620900,281.632170 525.563916,259.976899 522.466991,256.591988 539.104376,240.193096 549.182652,230.698924 573.813299,257.999508 576.397836,261.141109 542.810849,291.903262 524.836688,307.030070 501.620900,281.632170"/>
    <poly id="420910304" type="unknown" color="51,128,255" fill="0" layer="-1.00" shape="79.785110,908.348330 125.381493,962.219981"/>
    <poly id="420910305" type="unknown" color="51,128,255" fill="0" layer="-1.00" shape="125.381493,962.219981 130.393656,962.750212 134.258201,960.758160 179.371667,921.586142 191.388828,917.346875"/>
    <poly id="420910311" type="unknown" color="51,128,255" fill="0" layer="-1.00" shape="176.030382,853.911441 161.407600,862.167177 147.943058,869.769977 51.004849,909.492554"/>
    <poly id="420910312" type="unknown" color="51,128,255" fill="0" layer="-1.00" shape="530.471371,906.869791 506.676187,879.535777"/>
    <poly id="420910317" type="unknown" color="51,128,255" fill="0" layer="-1.00" shape="131.605219,810.981383 172.197576,845.647655"/>
    <poly id="420910318" type="unknown" color="51,128,255" fill="0" layer="-1.00" shape="131.605219,810.981383 75.082637,758.195787 39.790796,716.503393"/>
    <poly id="420910321" type="boundary.administrative" color="128,0,51" fill="0" layer="-12.00" shape="335.730928,813.348753 338.468947,801.621014 363.863021,730.755239"/>
    <poly id="420910331" type="unknown" color="51,128,255" fill="0" layer="-1.00" shape="222.651543,907.993147 215.813588,912.596666"/>
    <poly id="420910333" type="unknown" color="51,128,255" fill="0" layer="-1.00" shape="363.863021,730.755239 368.908416,730.123792"/>
    <poly id="420910334" type="unknown" color="51,128,255" fill="0" layer="-1.00" shape="229.588397,895.158387 222.651543,907.993147"/>
    <poly id="420910335" type="unknown" color="51,128,255" fill="0" layer="-1.00" shape="216.368506,900.448883 229.588397,895.158387"/>
    <poly id="420910337" type="unknown" color="51,128,255" fill="0" layer="-1.00" shape="326.922067,1026.167319 411.550151,968.723023 426.807474,958.287671 442.699928,949.489610 480.744885,934.979176 507.964018,922.207467 530.471371,906.869791"/>
    <poly id="420910342" type="unknown" color="51,128,255" fill="0" layer="-1.00" shape="335.730928,813.348753 324.738959,820.685640 282.987602,850.408973 237.729131,888.341959 229.588397,895.158387"/>
    <poly id="421483699" type="unknown" color="51,128,255" fill="0" layer="-1.00" shape="119.633832,84.722143 176.994876,154.611477 202.940715,187.686896 267.454692,271.769550"/>
    <poly id="422450526" type="unknown" color="51,128,255" fill="0" layer="-1.00" shape="143.971484,1035.479240 141.054196,1040.756986 130.153426,1061.027023 126.422967,1065.685346 100.431361,1092.684404 97.146382,1097.110321 94.530205,1104.788788 94.653643,1110.486451 96.169401,1116.659619 98.754285,1122.113490 101.661833,1125.476313 106.719059,1129.181757 111.998745,1131.028504 118.971240,1131.890329 125.620491,1131.236511 132.035589,1129.000656 136.022529,1126.234145 141.200754,1120.524560 152.936085,1095.331149 155.374337,1089.400736 157.878816,1079.752986 158.322893,1070.846822 158.598947,1056.054920 159.311052,1051.585164 163.219574,1046.030669"/>
    <poly id="422450527" type="unknown" color="51,128,255" fill="0" layer="-1.00" shape="139.069552,1027.868369 157.853901,994.741299"/>
    <poly id="422450528" type="unknown" color="51,128,255" fill="0" layer="-1.00" shape="162.711260,1002.208352 143.971484,1035.479240"/>
    <poly id="422450530" type="unknown" color="51,128,255" fill="0" layer="-1.00" shape="157.853901,994.741299 161.060550,988.080570 200.633225,916.703688 208.005431,909.832071 216.368506,900.448883"/>
    <poly id="423684817" type="unknown" color="51,128,255" fill="0" layer="-1.00" shape="204.344842,1070.374708 228.352818,1105.486288"/>
    <poly id="423684818" type="unknown" color="51,128,255" fill="0" layer="-1.00" shape="136.556480,984.522113 204.344842,1070.374708"/>
    <poly id="423684819" type="unknown" color="51,128,255" fill="0" layer="-1.00" shape="187.003999,1076.263281 163.219574,1046.030669 124.195334,996.704997"/>
    <poly id="423684820" type="unknown" color="51,128,255" fill="0" layer="-1.00" shape="124.195334,996.704997 71.713667,930.255299"/>
    <poly id="424989820" type="building" color="255,230,230" fill="1" layer="2.00" shape="425.313978,78.751624 433.479622,87.722736 435.206326,89.614301 452.456400,73.989742 443.922922,63.359169 425.313978,78.751624"/>
    <poly id="424989821" type="building" color="255,230,230" fill="1" layer="2.00" shape="452.456400,73.989742 459.430249,82.761913 453.616997,87.309989 441.578571,97.490431 435.206326,89.614301 452.456400,73.989742"/>
    <poly id="424989822" type="building" color="255,230,230" fill="1" layer="2.00" shape="459.430249,82.761913 453.616997,87.309989 441.578571,97.490431 453.509825,112.258179 472.174754,98.580556 459.430249,82.761913"/>
    <poly id="424993598" type="building" color="255,230,230" fill="1" layer="2.00" shape="446.016700,128.445329 472.855611,107.121458 476.575635,106.777862 491.358679,124.322070 478.273396,135.199689 462.515425,148.600231 446.016700,128.445329"/>
    <poly id="424993599" type="building" color="255,230,230" fill="1" layer="2.00" shape="491.358679,124.322070 504.983141,140.483540 487.131420,155.023977 476.718887,163.754825 462.515425,148.600231 478.273396,135.199689 491.358679,124.322070"/>
    <poly id="424993600" type="building" color="255,230,230" fill="1" layer="2.00" shape="536.649757,214.780654 554.813455,200.848660 568.437767,216.125063 549.182652,230.698924 536.649757,214.780654"/>
    <poly id="425010930" type="building" color="255,230,230" fill="1" layer="2.00" shape="551.890096,302.633336 537.579658,313.765608 532.479167,317.959527 523.934638,307.782539 524.836688,307.030070 542.810849,291.903262 551.890096,302.633336"/>
    <poly id="425131634" type="building" color="255,230,230" fill="1" layer="2.00" shape="501.620900,281.632170 525.563916,259.976899 522.466991,256.591988 510.324380,243.351019 486.359085,264.962041 501.620900,281.632170"/>
    <poly id="425131637" type="building" color="255,230,230" fill="1" layer="2.00" shape="486.359085,264.962041 510.324380,243.351019 515.925932,238.294062 499.940006,220.805359 470.373167,247.484402 486.359085,264.962041"/>
    <poly id="425131639" type="building" color="255,230,230" fill="1" layer="2.00" shape="445.218892,219.221401 459.696029,205.987035 480.393886,226.882498 467.798703,237.981294 462.797717,237.760862 445.218892,219.221401"/>
    <poly id="425131641" type="building" color="255,230,230" fill="1" layer="2.00" shape="445.218892,219.221401 459.696029,205.987035 463.716218,202.302218 453.066353,190.598833 434.480006,207.993761 445.218892,219.221401"/>
    <poly id="425131641#1" type="tourism" color="207,245,201" fill="1" layer="2.00" shape="445.218892,219.221401 459.696029,205.987035 463.716218,202.302218 453.066353,190.598833 434.480006,207.993761 445.218892,219.221401"/>
    <poly id="425131644" type="building" color="255,230,230" fill="1" layer="2.00" shape="453.066353,190.598833 442.416548,179.249482 423.707703,196.744002 434.480006,207.993761 453.066353,190.598833"/>
    <poly id="425131646" type="building" color="255,230,230" fill="1" layer="2.00" shape="442.416548,179.249482 429.471935,165.599312 410.763093,183.093833 423.707703,196.744002 442.416548,179.249482"/>
    <poly id="425131648" type="building" color="255,230,230" fill="1" layer="2.00" shape="374.312704,141.645080 396.930888,123.718424 404.706745,132.966190 412.716691,143.353456 392.336936,159.520640 388.906491,159.808868 374.312704,141.645080"/>
    <poly id="425131649" type="building" color="255,230,230" fill="1" layer="2.00" shape="396.930888,123.718424 384.999689,109.238331 361.724386,127.264670 374.312704,141.645080 396.930888,123.718424"/>
    <poly id="425131652" type="building" color="255,230,230" fill="1" layer="2.00" shape="361.724386,127.264670 345.861034,110.074689 357.777109,100.923180 374.960667,87.190498 376.252497,86.161376 387.756592,77.740122 401.454555,67.481958 403.337250,69.727528 419.284988,58.904744 431.902533,48.425488 443.922922,63.359169 425.313978,78.751624 433.479622,87.722736 424.481375,95.015093 444.533880,119.716485 426.258760,133.272338 417.691843,122.464753 404.706745,132.966190 396.930888,123.718424 384.999689,109.238331 361.724386,127.264670"/>
    <poly id="425145702" type="building" color="255,230,230" fill="1" layer="2.00" shape="357.777109,100.923180 344.174839,84.197487 332.893613,93.249318 332.459616,95.528469 345.861034,110.074689 357.777109,100.923180"/>
    <poly id="425166808" type="building" color="255,230,230" fill="1" layer="2.00" shape="99.172073,409.205930 93.835662,401.174743 87.663784,392.413507 108.578462,378.127093 113.211873,378.281210 123.305320,393.115636 119.463158,395.694063 99.172073,409.205930"/>
    <poly id="425166809" type="building" color="255,230,230" fill="1" layer="2.00" shape="99.172073,409.205930 111.627362,427.657718 119.645804,422.379112 131.862820,414.499893 119.463158,395.694063 99.172073,409.205930"/>
    <poly id="425166810" type="building" color="255,230,230" fill="1" layer="2.00" shape="131.862820,414.499893 145.677386,435.628818 133.471506,443.508035 119.645804,422.379112 131.862820,414.499893"/>
    <poly id="425166811" type="building" color="255,230,230" fill="1" layer="2.00" shape="145.677386,435.628818 152.127891,445.463169 151.426331,446.248792 130.366762,460.026306 126.311532,453.897819 132.358781,449.947157 129.729566,445.975809 133.471506,443.508035 145.677386,435.628818"/>
    <poly id="425166812" type="building" color="255,230,230" fill="1" layer="2.00" shape="130.366762,460.026306 131.102052,461.143594 138.778002,472.626198 159.626025,459.280196 151.426331,446.248792 130.366762,460.026306"/>
    <poly id="425166813" type="building" color="255,230,230" fill="1" layer="2.00" shape="150.583952,470.975783 162.378014,464.800410 171.458216,481.515805 160.176531,487.890235 150.583952,470.975783"/>